hogehoge
new line.
add 3rd line.
here is new line by vim.
